/*--------------------------------*- C++ -*----------------------------------*\
| =========                 |                                                 |
| \\      /  F ield         | OpenFOAM: The Open Source CFD Toolbox           |
|  \\    /   O peration     | Version:  v2012                                 |
|   \\  /    A nd           | Website:  www.openfoam.com                      |
|    \\/     M anipulation  |                                                 |
\*---------------------------------------------------------------------------*/
FoamFile
{
    version     2.0;
    format      ascii;
    class       extendedFeatureEdgeMesh;
    location    "constant/extendedFeatureEdgeMesh";
    object      ellip.extendedFeatureEdgeMesh;
}
// * * * * * * * * * * * * * * * * * * * * * * * * * * * * * * * * * * * * * //

// points

65
(
(-6.17602e-10 6.95906e-09 -2.79598e-11)
(-7.19154e-10 6.95779e-09 -3.1393e-11)
(6.42641e-10 -6.96528e-09 2.88129e-11)
(1.16313e-10 -5.94622e-10 9.9715e-10)
(-2.6156e-10 9.7357e-10 9.71733e-10)
(8.60101e-11 -1.51095e-09 -9.68085e-10)
(-3.35806e-10 7.13935e-10 9.55339e-10)
(7.42512e-10 -6.94683e-09 3.21718e-11)
(-1.94029e-12 6.1441e-10 9.91922e-10)
(-4.87527e-10 1.94424e-09 9.03903e-10)
(1.97726e-10 -9.16764e-10 9.89188e-10)
(-1.19733e-10 2.46312e-10 9.9371e-10)
(-2.78812e-11 2.56275e-10 9.9824e-10)
(-8.66814e-11 2.75459e-10 9.96232e-10)
(-6.14243e-10 6.94516e-09 -9.09079e-11)
(-7.09178e-10 6.90231e-09 -1.56959e-10)
(-7.15593e-10 6.94389e-09 -9.43343e-11)
(-6.17009e-10 6.90511e-09 9.66058e-11)
(-7.17772e-10 6.90385e-09 9.31992e-11)
(-8.1077e-10 6.88822e-09 -3.44208e-11)
(1.30615e-10 -7.95755e-10 -9.88597e-10)
(2.29606e-10 -1.61233e-09 -9.63125e-10)
(2.25159e-10 -3.05426e-09 -8.83388e-10)
(1.34959e-10 -1.60016e-09 -9.66338e-10)
(5.36178e-10 -6.90162e-09 8.67792e-11)
(6.43493e-10 -6.95149e-09 -3.42481e-11)
(8.03249e-11 -4.52017e-10 9.99151e-10)
(1.07733e-10 -7.18049e-10 9.96986e-10)
(1.84505e-10 -1.10694e-09 9.88934e-10)
(2.71176e-10 -1.20684e-09 9.7782e-10)
(2.34041e-11 -1.96932e-10 1.00044e-09)
(-3.42734e-11 7.33829e-10 9.90707e-10)
(-3.43013e-11 1.13014e-09 9.7926e-10)
(-1.1595e-10 3.89104e-10 9.93692e-10)
(-1.81765e-10 6.32211e-10 9.85822e-10)
(-3.33268e-10 1.28094e-09 9.54849e-10)
(5.52789e-11 -1.0829e-09 -9.82112e-10)
(1.31698e-10 -2.88394e-09 -8.86722e-10)
(6.29978e-10 -6.73477e-09 -2.2727e-10)
(6.41783e-10 -6.91e-09 -9.72316e-11)
(9.10214e-11 -1.16406e-09 -9.80821e-10)
(-2.63488e-10 5.42732e-10 9.72106e-10)
(-4.9138e-10 1.08338e-09 9.04647e-10)
(1.06992e-11 -1.24484e-09 9.83196e-10)
(-5.0679e-12 -8.07545e-10 9.93262e-10)
(2.25227e-10 -6.38954e-10 9.85095e-10)
(1.45951e-10 -4.43512e-10 9.94574e-10)
(2.34233e-11 -1.68627e-10 1.00041e-09)
(7.43166e-10 -6.93307e-09 -3.08959e-11)
(-1.60351e-11 2.06297e-10 9.98692e-10)
(1.55184e-11 9.46141e-10 9.81132e-10)
(-9.61735e-12 4.67557e-10 9.95175e-10)
(7.32537e-10 -6.89272e-09 1.5627e-10)
(-1.03171e-11 -1.2111e-09 -9.71647e-10)
(-1.7336e-11 -6.46897e-10 -9.89848e-10)
(-4.2752e-10 2.46001e-09 9.05408e-10)
(-2.93744e-10 1.62065e-09 9.5584e-10)
(9.28841e-11 -4.55983e-10 -9.94711e-10)
(-2.31527e-10 1.2317e-09 9.72487e-10)
(-1.62274e-10 7.99738e-10 9.86311e-10)
(-5.6649e-11 -6.4698e-10 9.91354e-10)
(-6.87782e-11 -9.97439e-10 9.80256e-10)
(2.14667e-11 -2.4826e-10 1.00042e-09)
(-5.22233e-11 -2.31142e-09 -8.93524e-10)
(-3.46487e-11 -2.02356e-10 9.98974e-10)
)

// edges

61
(
(14 0)
(15 16)
(0 17)
(1 0)
(16 1)
(1 18)
(19 1)
(20 21)
(22 23)
(2 24)
(25 2)
(3 26)
(10 3)
(27 28)
(10 29)
(30 3)
(31 32)
(33 4)
(4 34)
(35 4)
(36 5)
(5 37)
(38 39)
(40 23)
(40 5)
(11 6)
(6 41)
(42 6)
(35 9)
(39 25)
(43 44)
(45 46)
(46 47)
(48 7)
(7 2)
(8 49)
(50 8)
(8 51)
(7 52)
(53 54)
(55 56)
(20 57)
(8 12)
(56 58)
(58 59)
(33 13)
(60 61)
(62 10)
(28 62)
(29 30)
(37 36)
(42 11)
(11 9)
(45 47)
(63 54)
(57 21)
(50 12)
(12 32)
(13 55)
(9 13)
(64 61)
)

// concaveStart mixedStart nonFeatureStart
9 9 14
// internalStart flatStart openStart multipleStart
47 61 61 61
// normals

86
(
(0.546421 0.823465 -0.15274)
(-0.00493668 0.976393 -0.215943)
(0.00823018 0.833466 -0.55251)
(-0.508804 0.692276 -0.511735)
(0.508205 0.791185 0.340227)
(-0.0249366 0.917311 0.39739)
(-0.0249316 0.91731 0.397393)
(-0.00494355 0.976391 -0.215955)
(-0.58747 0.782561 -0.206099)
(-0.577866 0.746603 0.329628)
(-0.577868 0.746603 0.329626)
(0.0566074 -0.0242719 -0.998101)
(0.78951 0.076715 -0.608924)
(-0.0105144 -0.0575998 -0.998284)
(-0.522494 -0.080831 -0.848803)
(-0.575799 -0.797057 -0.182087)
(-0.32803 -0.874286 0.357799)
(0.18452 -0.960657 -0.207583)
(-0.20839 -0.0662815 0.975797)
(0.482414 0.109551 0.869066)
(-0.577993 -0.165823 0.799016)
(0.645858 0.144695 0.749621)
(0.691565 0.121782 0.711973)
(0.044058 -0.0119851 0.998957)
(0.885753 0.20802 0.414932)
(0.116494 -0.00942433 0.993147)
(0.0344868 -0.000197952 0.999405)
(0.0400636 0.0288516 0.998781)
(0.701459 0.0206266 0.712411)
(0.233037 0.0944215 0.967873)
(0.723145 0.204941 0.659592)
(-0.274336 -0.0244507 0.961323)
(-0.540638 -0.0801276 0.837431)
(-0.565347 -0.0675288 -0.822084)
(0.156042 -0.0211596 -0.987524)
(0.426793 -0.0393383 -0.903493)
(-0.413646 -0.560376 -0.717549)
(0.134947 -0.584612 -0.800012)
(0.162425 -0.0163995 -0.986585)
(-0.197835 -0.0331119 -0.979676)
(0.360855 0.240673 0.901033)
(0.740198 0.387131 0.54976)
(-0.29647 -0.0317516 0.954514)
(-0.362078 -0.0246151 0.931823)
(-0.822648 -0.149179 0.548631)
(0.915146 0.237829 0.325493)
(-0.539645 -0.709694 -0.4529)
(0.170025 -0.820782 -0.545352)
(-0.536077 -0.0387397 0.84328)
(0.373381 -0.00789026 0.927645)
(-0.543107 -0.259035 0.798708)
(0.162863 0.0182144 0.986481)
(0.013736 -0.0150935 0.999792)
(0.184515 -0.96066 -0.207575)
(0.695747 -0.703262 -0.146143)
(0.152943 -0.901319 0.405256)
(0.661016 -0.0103839 0.7503)
(0.0329334 0.0154386 0.999338)
(-0.599828 0.0575263 0.798058)
(0.493765 -0.00655337 0.86957)
(-0.441094 0.0429135 0.896434)
(0.651588 -0.674777 0.346568)
(0.0551752 -0.0315086 -0.997979)
(-0.608131 -0.0331524 -0.793144)
(-0.144897 0.036317 0.98878)
(-0.973618 -0.144566 0.176547)
(0.0206045 -0.015701 -0.999664)
(0.0233322 0.0159442 0.999601)
(-0.109412 0.0250263 0.993681)
(-0.897084 -0.125364 0.423703)
(-0.0870567 0.0179204 0.996042)
(-0.627855 -0.0758688 0.774624)
(0.816041 0.222091 0.533622)
(-0.0780108 0.00218661 0.99695)
(0.698007 -0.0467846 0.714561)
(-0.476865 -0.0113269 0.878903)
(0.0463798 -0.00455799 0.998913)
(0.0946324 0.000924011 0.995512)
(0.050862 -0.0506692 -0.99742)
(-0.229065 0.00186715 0.973409)
(0.0566244 -0.008208 0.998362)
(-0.0559821 -0.0565122 -0.996831)
(0.0772467 -0.018096 -0.996848)
(0.0437808 0.022015 0.998799)
(-0.161204 0.0158753 0.986793)
(-0.0502142 -0.0213513 0.99851)
)

// normal volume types

86
(
0
0
0
0
0
0
0
0
0
0
0
0
0
0
0
0
0
0
0
0
0
0
0
0
0
0
0
0
0
0
0
0
0
0
0
0
0
0
0
0
0
0
0
0
0
0
0
0
0
0
0
0
0
0
0
0
0
0
0
0
0
0
0
0
0
0
0
0
0
0
0
0
0
0
0
0
0
0
0
0
0
0
0
0
0
0
)

// normalDirections

61
(
2(1 -1)
2(1 -1)
2(1 -1)
2(1 -1)
2(1 -1)
2(1 -1)
2(1 -1)
2(1 -1)
2(1 -1)
2(1 -1)
2(1 -1)
2(1 -1)
2(1 -1)
2(1 -1)
2(1 -1)
2(1 -1)
2(1 -1)
2(1 -1)
2(1 -1)
2(1 -1)
2(1 -1)
2(1 -1)
2(1 -1)
2(1 -1)
2(1 -1)
2(1 -1)
2(1 -1)
2(1 -1)
2(1 -1)
2(1 -1)
2(1 -1)
2(1 -1)
2(1 -1)
2(1 -1)
2(1 -1)
2(1 -1)
2(1 -1)
2(1 -1)
2(1 -1)
2(1 -1)
2(1 -1)
2(1 -1)
2(1 -1)
2(1 -1)
2(1 -1)
2(1 -1)
2(1 -1)
2(1 -1)
2(1 -1)
2(1 -1)
2(1 -1)
2(1 -1)
2(1 -1)
2(1 -1)
2(1 -1)
2(1 -1)
2(1 -1)
2(1 -1)
2(1 -1)
2(1 -1)
2(1 -1)
)

// edgeNormals

61
(
2(0 1)
2(2 3)
2(4 5)
2(1 6)
2(7 8)
2(6 9)
2(8 10)
2(11 12)
2(13 14)
2(15 16)
2(15 17)
2(18 19)
2(20 21)
2(22 23)
2(24 25)
2(21 26)
2(27 28)
2(29 30)
2(29 31)
2(30 32)
2(33 34)
2(33 35)
2(36 37)
2(14 38)
2(39 35)
2(40 41)
2(40 42)
2(41 43)
2(44 45)
2(46 47)
2(48 49)
2(50 51)
2(50 52)
2(53 54)
2(17 55)
2(56 57)
2(56 58)
2(59 60)
2(55 61)
2(62 63)
2(64 65)
2(12 66)
2(67 58)
2(68 69)
2(70 71)
2(72 73)
2(74 75)
2(20 76)
2(22 76)
2(24 77)
2(33 78)
2(79 41)
2(79 44)
2(80 50)
2(63 81)
2(12 82)
2(58 83)
2(28 83)
2(84 65)
2(84 45)
2(85 74)
)

// featurePointNormals

14
(
4(0 1 4 5)
4(1 6 8 9)
4(15 16 17 55)
5(18 19 20 21 26)
4(29 30 31 32)
4(33 34 35 39)
4(40 41 42 43)
4(53 54 55 61)
6(56 57 58 59 60 67)
4(44 45 79 84)
5(20 21 24 25 76)
4(40 41 79 44)
4(67 58 83 28)
5(72 73 84 65 45)
)

// featurePointEdges

14
(
3(0 3 2)
4(4 6 5 3)
3(9 34 10)
3(12 15 11)
3(17 19 18)
3(20 24 21)
3(25 27 26)
3(34 38 33)
4(35 37 42 36)
3(52 28 59)
3(47 14 12)
3(52 51 25)
3(57 56 42)
3(58 59 45)
)

// regionEdges
0()


// ************************************************************************* //
