/*--------------------------------*- C++ -*----------------------------------*\
| =========                 |                                                 |
| \\      /  F ield         | OpenFOAM: The Open Source CFD Toolbox           |
|  \\    /   O peration     | Version:  v2012                                 |
|   \\  /    A nd           | Website:  www.openfoam.com                      |
|    \\/     M anipulation  |                                                 |
\*---------------------------------------------------------------------------*/
FoamFile
{
    version     2.0;
    format      ascii;
    class       extendedFeatureEdgeMesh;
    location    "constant/extendedFeatureEdgeMesh";
    object      ellip.extendedFeatureEdgeMesh;
}
// * * * * * * * * * * * * * * * * * * * * * * * * * * * * * * * * * * * * * //

// points

16
(
(-9.057287e-05 -0.0007828959 -0.009997674)
(0.000448233 0.004495301 0.009926535)
(0.0002219497 0.002225919 0.009982037)
(-0.0003166141 -0.001939064 -0.009983224)
(-0.0009663542 -0.005918319 -0.009842612)
(0.001152189 -0.0007909125 -0.009931433)
(0.0005706594 -0.0003917254 -0.009983224)
(6.123234e-19 -5.999039e-34 -0.01)
(-0.000207776 -0.003516076 0.009959124)
(-0.0001151987 -0.001523684 0.009992078)
(-0.0002783214 -0.004709876 0.009926535)
(3.994961e-05 0.0005721858 0.009998897)
(-6.469806e-05 0.001516652 -0.009992599)
(-3.946079e-05 0.0005521709 -0.00999897)
(-0.0005452406 0.009226798 -0.009715032)
(-0.0009490889 -0.008687812 -0.009715032)
)

// edges

15
(
(1 2)
(3 4)
(5 6)
(6 7)
(8 9)
(10 8)
(2 11)
(12 13)
(0 3)
(5 7)
(10 9)
(11 1)
(14 13)
(4 0)
(0 15)
)

// concaveStart mixedStart nonFeatureStart
0 0 1
// internalStart flatStart openStart multipleStart
9 15 15 15
// normals

20
(
(0.03818959 0.02062597 0.9990576)
(-0.8059054 0.09465137 0.5844293)
(-0.1842657 -0.004643555 -0.9828655)
(0.573849 -0.1223136 -0.8097757)
(0.5659373 0.8244483 -1.3238e-06)
(0.08586013 -0.004180849 -0.9962984)
(0.02843505 -0.001384608 -0.9995947)
(-0.6484213 0.017541 0.7610796)
(-0.01193086 -0.01598221 0.9998011)
(-0.01950714 -0.02613116 0.9994682)
(0.01567848 0.008467852 0.9998412)
(-0.6307589 -0.0113802 -0.7758955)
(0.01682235 0.007043928 -0.9998337)
(-0.02198799 -0.008196236 -0.9997246)
(0.118909 0.08748141 -0.9890438)
(-0.02568521 -0.01924528 0.9994848)
(0.01849901 0.01651412 0.9996925)
(0.250434 0.04625448 -0.9670281)
(0.08933416 -0.04527766 -0.994972)
(-0.437542 0.01537303 -0.8990665)
)

// normal volume types

20
(
0
0
0
0
0
0
0
0
0
0
0
0
0
0
0
0
0
0
0
0
)

// normalDirections

15
(
2(1 -1)
2(1 -1)
2(1 -1)
2(1 -1)
2(1 -1)
2(1 -1)
2(1 -1)
2(1 -1)
2(1 -1)
2(1 -1)
2(1 -1)
2(1 -1)
2(1 -1)
2(1 -1)
2(1 -1)
)

// edgeNormals

15
(
2(0 1)
2(2 3)
2(4 5)
2(4 6)
2(7 8)
2(7 9)
2(10 1)
2(11 12)
2(13 3)
2(14 4)
2(15 7)
2(16 1)
2(17 11)
2(18 3)
2(18 19)
)

// featurePointNormals
1(4(13 3 18 19))
// featurePointEdges
1(3(13 8 14))
// regionEdges
0()


// ************************************************************************* //
