/*--------------------------------*- C++ -*----------------------------------*\
| =========                 |                                                 |
| \\      /  F ield         | OpenFOAM: The Open Source CFD Toolbox           |
|  \\    /   O peration     | Version:  v2012                                 |
|   \\  /    A nd           | Website:  www.openfoam.com                      |
|    \\/     M anipulation  |                                                 |
\*---------------------------------------------------------------------------*/
FoamFile
{
    version     2.0;
    format      ascii;
    class       volScalarField;
    location    "0/fluid";
    object      p_rgh;
}
// * * * * * * * * * * * * * * * * * * * * * * * * * * * * * * * * * * * * * //

dimensions      [ 1 -1 -2 0 0 0 0 ];

internalField   uniform 100000;

boundaryField
{
    maxY
    {
        type            fixedFluxPressure;
        value           uniform 100000;
    }
    minX
    {
        type            fixedFluxPressure;
        value           uniform 100000;
    }
    maxX
    {
        type            fixedFluxPressure;
        value           uniform 100000;
    }
    minY
    {
        type            fixedFluxPressure;
        value           uniform 100000;
    }
    minZ
    {
        type            fixedFluxPressure;
        value           uniform 100000;
    }
    maxZ
    {
        type            fixedFluxPressure;
        value           uniform 100000;
    }
    fluid_to_ellipse
    {
        type            fixedFluxPressure;
        value           uniform 100000;
    }
}


// ************************************************************************* //
