/*--------------------------------*- C++ -*----------------------------------*\
| =========                 |                                                 |
| \\      /  F ield         | OpenFOAM: The Open Source CFD Toolbox           |
|  \\    /   O peration     | Version:  v2012                                 |
|   \\  /    A nd           | Website:  www.openfoam.com                      |
|    \\/     M anipulation  |                                                 |
\*---------------------------------------------------------------------------*/
FoamFile
{
    version     2.0;
    format      ascii;
    class       volScalarField;
    location    "0/fluid";
    object      k;
}
// * * * * * * * * * * * * * * * * * * * * * * * * * * * * * * * * * * * * * //

dimensions      [ 0 2 -2 0 0 0 0 ];

internalField   uniform 0.1;

boundaryField
{
    maxY
    {
        type            kqRWallFunction;
        value           uniform 0.1;
    }
    minX
    {
        type            kqRWallFunction;
        value           uniform 0.1;
    }
    maxX
    {
        type            kqRWallFunction;
        value           uniform 0.1;
    }
    minY
    {
        type            kqRWallFunction;
        value           uniform 0.1;
    }
    minZ
    {
        type            kqRWallFunction;
        value           uniform 0.1;
    }
    maxZ
    {
        type            kqRWallFunction;
        value           uniform 0.1;
    }
    fluid_to_ellipse
    {
        type            kqRWallFunction;
        value           uniform 0.1;
    }
}


// ************************************************************************* //
