/*--------------------------------*- C++ -*----------------------------------*\
| =========                 |                                                 |
| \\      /  F ield         | OpenFOAM: The Open Source CFD Toolbox           |
|  \\    /   O peration     | Version:  v2012                                 |
|   \\  /    A nd           | Website:  www.openfoam.com                      |
|    \\/     M anipulation  |                                                 |
\*---------------------------------------------------------------------------*/
FoamFile
{
    version     2.0;
    format      ascii;
    class       featureEdgeMesh;
    location    "constant/triSurface";
    object      ellip.eMesh;
}
// * * * * * * * * * * * * * * * * * * * * * * * * * * * * * * * * * * * * * //


// points:

65
(
(-6.17602e-10 6.95906e-09 -2.79598e-11)
(-7.19154e-10 6.95779e-09 -3.1393e-11)
(6.42641e-10 -6.96528e-09 2.88129e-11)
(1.16313e-10 -5.94622e-10 9.9715e-10)
(-2.6156e-10 9.7357e-10 9.71733e-10)
(8.60101e-11 -1.51095e-09 -9.68085e-10)
(-3.35806e-10 7.13935e-10 9.55339e-10)
(7.42512e-10 -6.94683e-09 3.21718e-11)
(-1.94029e-12 6.1441e-10 9.91922e-10)
(-4.87527e-10 1.94424e-09 9.03903e-10)
(1.97726e-10 -9.16764e-10 9.89188e-10)
(-1.19733e-10 2.46312e-10 9.9371e-10)
(-2.78812e-11 2.56275e-10 9.9824e-10)
(-8.66814e-11 2.75459e-10 9.96232e-10)
(-6.14243e-10 6.94516e-09 -9.09079e-11)
(-7.09178e-10 6.90231e-09 -1.56959e-10)
(-7.15593e-10 6.94389e-09 -9.43343e-11)
(-6.17009e-10 6.90511e-09 9.66058e-11)
(-7.17772e-10 6.90385e-09 9.31992e-11)
(-8.1077e-10 6.88822e-09 -3.44208e-11)
(1.30615e-10 -7.95755e-10 -9.88597e-10)
(2.29606e-10 -1.61233e-09 -9.63125e-10)
(2.25159e-10 -3.05426e-09 -8.83388e-10)
(1.34959e-10 -1.60016e-09 -9.66338e-10)
(5.36178e-10 -6.90162e-09 8.67792e-11)
(6.43493e-10 -6.95149e-09 -3.42481e-11)
(8.03249e-11 -4.52017e-10 9.99151e-10)
(1.07733e-10 -7.18049e-10 9.96986e-10)
(1.84505e-10 -1.10694e-09 9.88934e-10)
(2.71176e-10 -1.20684e-09 9.7782e-10)
(2.34041e-11 -1.96932e-10 1.00044e-09)
(-3.42734e-11 7.33829e-10 9.90707e-10)
(-3.43013e-11 1.13014e-09 9.7926e-10)
(-1.1595e-10 3.89104e-10 9.93692e-10)
(-1.81765e-10 6.32211e-10 9.85822e-10)
(-3.33268e-10 1.28094e-09 9.54849e-10)
(5.52789e-11 -1.0829e-09 -9.82112e-10)
(1.31698e-10 -2.88394e-09 -8.86722e-10)
(6.29978e-10 -6.73477e-09 -2.2727e-10)
(6.41783e-10 -6.91e-09 -9.72316e-11)
(9.10214e-11 -1.16406e-09 -9.80821e-10)
(-2.63488e-10 5.42732e-10 9.72106e-10)
(-4.9138e-10 1.08338e-09 9.04647e-10)
(1.06992e-11 -1.24484e-09 9.83196e-10)
(-5.0679e-12 -8.07545e-10 9.93262e-10)
(2.25227e-10 -6.38954e-10 9.85095e-10)
(1.45951e-10 -4.43512e-10 9.94574e-10)
(2.34233e-11 -1.68627e-10 1.00041e-09)
(7.43166e-10 -6.93307e-09 -3.08959e-11)
(-1.60351e-11 2.06297e-10 9.98692e-10)
(1.55184e-11 9.46141e-10 9.81132e-10)
(-9.61735e-12 4.67557e-10 9.95175e-10)
(7.32537e-10 -6.89272e-09 1.5627e-10)
(-1.03171e-11 -1.2111e-09 -9.71647e-10)
(-1.7336e-11 -6.46897e-10 -9.89848e-10)
(-4.2752e-10 2.46001e-09 9.05408e-10)
(-2.93744e-10 1.62065e-09 9.5584e-10)
(9.28841e-11 -4.55983e-10 -9.94711e-10)
(-2.31527e-10 1.2317e-09 9.72487e-10)
(-1.62274e-10 7.99738e-10 9.86311e-10)
(-5.6649e-11 -6.4698e-10 9.91354e-10)
(-6.87782e-11 -9.97439e-10 9.80256e-10)
(2.14667e-11 -2.4826e-10 1.00042e-09)
(-5.22233e-11 -2.31142e-09 -8.93524e-10)
(-3.46487e-11 -2.02356e-10 9.98974e-10)
)


// edges:

61
(
(14 0)
(15 16)
(0 17)
(1 0)
(16 1)
(1 18)
(19 1)
(20 21)
(22 23)
(2 24)
(25 2)
(3 26)
(10 3)
(27 28)
(10 29)
(30 3)
(31 32)
(33 4)
(4 34)
(35 4)
(36 5)
(5 37)
(38 39)
(40 23)
(40 5)
(11 6)
(6 41)
(42 6)
(35 9)
(39 25)
(43 44)
(45 46)
(46 47)
(48 7)
(7 2)
(8 49)
(50 8)
(8 51)
(7 52)
(53 54)
(55 56)
(20 57)
(8 12)
(56 58)
(58 59)
(33 13)
(60 61)
(62 10)
(28 62)
(29 30)
(37 36)
(42 11)
(11 9)
(45 47)
(63 54)
(57 21)
(50 12)
(12 32)
(13 55)
(9 13)
(64 61)
)

// * * * * * * * * * * * * * * * * * * * * * * * * * * * * * * * * * * * * * //


// ************************************************************************* //
